@<TRIPOS>MOLECULE
*****
 35 38 0 0 0
SMALL
GASTEIGER

@<TRIPOS>ATOM
      1 C          24.2026   26.9550    2.1026 C.ar    1  UNL1        0.0095
      2 C          23.4048   25.7301    1.7662 C.ar    1  UNL1       -0.0000
      3 C          21.9060   25.7780    1.8022 C.ar    1  UNL1        0.0175
      4 C          21.1082   24.5531    1.4658 C.ar    1  UNL1        0.0015
      5 C          19.6094   24.6011    1.5018 C.ar    1  UNL1       -0.0002
      6 C          18.9084   25.8739    1.8741 C.ar    1  UNL1        0.0015
      7 C          19.7062   27.0987    2.2104 C.ar    1  UNL1        0.0191
      8 C          21.2050   27.0508    2.1745 C.ar    1  UNL1        0.0826
      9 N          22.0029   28.2757    2.5108 N.ar    1  UNL1       -0.2315
     10 C          23.5016   28.2278    2.4749 C.ar    1  UNL1        0.1213
     11 N          24.2995   29.4527    2.8112 N.pl3   1  UNL1       -0.3429
     12 H          23.8395   30.2881    3.0556 H       1  UNL1        0.1437
     13 H          25.2832   29.4213    2.7876 H       1  UNL1        0.1437
     14 C          18.8115   23.3762    1.1655 C.ar    1  UNL1       -0.0040
     15 C          18.4274   22.4109    2.2474 C.ar    1  UNL1       -0.0003
     16 C          17.6295   21.1860    1.9111 C.ar    1  UNL1       -0.0000
     17 C          17.2158   20.9264    0.4928 C.ar    1  UNL1       -0.0003
     18 C          17.6000   21.8917   -0.5891 C.ar    1  UNL1       -0.0043
     19 C          18.3979   23.1166   -0.2528 C.ar    1  UNL1       -0.0218
     20 C          18.7820   24.0819   -1.3347 C.3     1  UNL1        0.0310
     21 C          25.7015   26.9071    2.0666 C.3     1  UNL1        0.0382
     22 C          26.4322   27.2386    0.7993 C.3     1  UNL1        0.0809
     23 C          27.1083   28.5691    0.6494 C.3     1  UNL1        0.0099
     24 N          27.1843   24.9266   -0.1171 N.am    1  UNL1       -0.3058
     25 C          26.4869   26.2394   -0.3182 C.2     1  UNL1        0.2223
     26 O          25.8442   26.5529   -1.6367 O.2     1  UNL1       -0.2751
     27 H          27.6061   24.7209    0.7484 H       1  UNL1        0.1494
     28 O          27.3483   21.9290   -3.4693 O.3     1  UNL1       -0.3584
     29 C          26.2481   21.8574   -2.4522 C.3     1  UNL1        0.1436
     30 C          26.1934   22.8566   -1.3349 C.3     1  UNL1        0.0517
     31 C          27.2390   23.9275   -1.2344 C.3     1  UNL1        0.0764
     32 C          28.3392   23.9991   -2.2515 C.3     1  UNL1        0.0468
     33 C          28.3939   22.9999   -3.3689 C.3     1  UNL1        0.0945
     34 C          29.6045   23.8230   -3.6961 C.3     1  UNL1        0.0297
     35 C          28.8690   22.2866   -4.5999 C.3     1  UNL1        0.0297
@<TRIPOS>BOND
     1    28    29    1
     2    29    30    1
     3    30    31    1
     4    31    24    1
     5    24    25   am
     6    25    26    2
     7    25    22    1
     8    22    21    1
     9    21     1    1
    10     1     2   ar
    11     2     3   ar
    12     3     4   ar
    13     4     5   ar
    14     5     6   ar
    15     6     7   ar
    16     7     8   ar
    17     8     9   ar
    18     9    10   ar
    19    10    11    1
    20     5    14    1
    21    14    15   ar
    22    15    16   ar
    23    16    17   ar
    24    17    18   ar
    25    18    19   ar
    26    19    20    1
    27    22    23    1
    28    31    32    1
    29    32    33    1
    30    33    34    1
    31    33    35    1
    32    33    28    1
    33    10     1   ar
    34    19    14   ar
    35     8     3   ar
    36    24    27    1
    37    11    12    1
    38    11    13    1
@<TRIPOS>MOLECULE
*****
 35 38 0 0 0
SMALL
GASTEIGER

@<TRIPOS>ATOM
      1 C          19.2927   21.2070    0.9615 C.ar    1  UNL1        0.0095
      2 C          18.4070   20.4537    0.0139 C.ar    1  UNL1       -0.0000
      3 C          19.0120   19.5665   -1.0335 C.ar    1  UNL1        0.0175
      4 C          18.1263   18.8132   -1.9811 C.ar    1  UNL1        0.0015
      5 C          18.7313   17.9260   -3.0284 C.ar    1  UNL1       -0.0002
      6 C          20.2220   17.7922   -3.1282 C.ar    1  UNL1        0.0015
      7 C          21.1077   18.5456   -2.1805 C.ar    1  UNL1        0.0191
      8 C          20.5027   19.4327   -1.1332 C.ar    1  UNL1        0.0826
      9 N          21.3884   20.1861   -0.1855 N.ar    1  UNL1       -0.2315
     10 C          20.7834   21.0732    0.8618 C.ar    1  UNL1        0.1213
     11 N          21.6690   21.8266    1.8095 N.pl3   1  UNL1       -0.3429
     12 H          22.6474   21.7388    1.7441 H       1  UNL1        0.1437
     13 H          21.2719   22.4088    2.4969 H       1  UNL1        0.1437
     14 C          17.8457   17.1727   -3.9761 C.ar    1  UNL1       -0.0040
     15 C          17.5235   17.7512   -5.3221 C.ar    1  UNL1       -0.0003
     16 C          16.6379   16.9979   -6.2698 C.ar    1  UNL1       -0.0000
     17 C          16.0743   15.6660   -5.8715 C.ar    1  UNL1       -0.0003
     18 C          16.3965   15.0874   -4.5256 C.ar    1  UNL1       -0.0043
     19 C          17.2822   15.8408   -3.5779 C.ar    1  UNL1       -0.0218
     20 C          17.6043   15.2623   -2.2320 C.3     1  UNL1        0.0310
     21 C          18.6877   22.0942    2.0089 C.3     1  UNL1        0.0382
     22 C          18.4063   23.5348    1.7002 C.3     1  UNL1        0.0809
     23 C          16.9910   24.0296    1.6548 C.3     1  UNL1        0.0099
     24 N          20.3959   24.9602    2.5718 N.am    1  UNL1       -0.3058
     25 C          19.5403   24.4808    1.4369 C.2     1  UNL1        0.2223
     26 O          19.8187   24.9471    0.0387 O.2     1  UNL1       -0.2751
     27 H          20.2132   24.6541    3.4895 H       1  UNL1        0.1494
     28 O          23.7979   27.7980    1.7820 O.3     1  UNL1       -0.3584
     29 C          22.4169   28.3314    2.0234 C.3     1  UNL1        0.1436
     30 C          21.2829   27.3855    2.2867 C.3     1  UNL1        0.0517
     31 C          21.5299   25.9061    2.3085 C.3     1  UNL1        0.0764
     32 C          22.9109   25.3727    2.0671 C.3     1  UNL1        0.0468
     33 C          24.0449   26.3186    1.8038 C.3     1  UNL1        0.0945
     34 C          24.7737   25.0099    1.7246 C.3     1  UNL1        0.0297
     35 C          25.4320   26.8100    1.5130 C.3     1  UNL1        0.0297
@<TRIPOS>BOND
     1    28    29    1
     2    29    30    1
     3    30    31    1
     4    31    24    1
     5    24    25   am
     6    25    26    2
     7    25    22    1
     8    22    21    1
     9    21     1    1
    10     1     2   ar
    11     2     3   ar
    12     3     4   ar
    13     4     5   ar
    14     5     6   ar
    15     6     7   ar
    16     7     8   ar
    17     8     9   ar
    18     9    10   ar
    19    10    11    1
    20     5    14    1
    21    14    15   ar
    22    15    16   ar
    23    16    17   ar
    24    17    18   ar
    25    18    19   ar
    26    19    20    1
    27    22    23    1
    28    31    32    1
    29    32    33    1
    30    33    34    1
    31    33    35    1
    32    33    28    1
    33    10     1   ar
    34    19    14   ar
    35     8     3   ar
    36    24    27    1
    37    11    12    1
    38    11    13    1
@<TRIPOS>MOLECULE
*****
 35 38 0 0 0
SMALL
GASTEIGER

@<TRIPOS>ATOM
      1 C          22.4471   17.0694   -0.9385 C.ar    1  UNL1        0.0095
      2 C          22.1060   18.4143   -0.3687 C.ar    1  UNL1       -0.0000
      3 C          20.7735   19.0373   -0.6625 C.ar    1  UNL1        0.0175
      4 C          20.4324   20.3823   -0.0926 C.ar    1  UNL1        0.0015
      5 C          19.0999   21.0052   -0.3864 C.ar    1  UNL1       -0.0002
      6 C          18.1085   20.2832   -1.2500 C.ar    1  UNL1        0.0015
      7 C          18.4496   18.9382   -1.8199 C.ar    1  UNL1        0.0191
      8 C          19.7821   18.3153   -1.5261 C.ar    1  UNL1        0.0826
      9 N          20.1232   16.9703   -2.0959 N.ar    1  UNL1       -0.2315
     10 C          21.4557   16.3474   -1.8021 C.ar    1  UNL1        0.1213
     11 N          21.7969   15.0024   -2.3720 N.pl3   1  UNL1       -0.3429
     12 H          21.1462   14.5285   -2.9388 H       1  UNL1        0.1437
     13 H          22.6715   14.5935   -2.1791 H       1  UNL1        0.1437
     14 C          18.7587   22.3502    0.1834 C.ar    1  UNL1       -0.0040
     15 C          19.0656   23.5946   -0.5959 C.ar    1  UNL1       -0.0003
     16 C          18.7244   24.9396   -0.0261 C.ar    1  UNL1       -0.0000
     17 C          18.0764   25.0401    1.3230 C.ar    1  UNL1       -0.0003
     18 C          17.7696   23.7957    2.1023 C.ar    1  UNL1       -0.0043
     19 C          18.1108   22.4507    1.5325 C.ar    1  UNL1       -0.0218
     20 C          17.8039   21.2063    2.3118 C.3     1  UNL1        0.0310
     21 C          23.7797   16.4464   -0.6447 C.3     1  UNL1        0.0382
     22 C          24.0654   15.8957    0.7209 C.3     1  UNL1        0.0809
     23 C          24.7671   16.7438    1.7399 C.3     1  UNL1        0.0099
     24 N          23.4875   14.0968    2.5042 N.am    1  UNL1       -0.3058
     25 C          23.6494   14.4968    1.0676 C.2     1  UNL1        0.2223
     26 O          23.3953   13.4980   -0.0222 O.2     1  UNL1       -0.2751
     27 H          23.6542   14.7523    3.2195 H       1  UNL1        0.1494
     28 O          22.2395    9.9003    3.5444 O.3     1  UNL1       -0.3584
     29 C          23.6827   10.2986    3.6380 C.3     1  UNL1        0.1436
     30 C          24.0986   11.6974    3.2913 C.3     1  UNL1        0.0517
     31 C          23.0715   12.6980    2.8509 C.3     1  UNL1        0.0764
     32 C          21.6284   12.2996    2.7573 C.3     1  UNL1        0.0468
     33 C          21.2124   10.9007    3.1040 C.3     1  UNL1        0.0945
     34 C          19.8801   11.4861    2.7402 C.3     1  UNL1        0.0297
     35 C          20.3337    9.7053    3.3244 C.3     1  UNL1        0.0297
@<TRIPOS>BOND
     1    28    29    1
     2    29    30    1
     3    30    31    1
     4    31    24    1
     5    24    25   am
     6    25    26    2
     7    25    22    1
     8    22    21    1
     9    21     1    1
    10     1     2   ar
    11     2     3   ar
    12     3     4   ar
    13     4     5   ar
    14     5     6   ar
    15     6     7   ar
    16     7     8   ar
    17     8     9   ar
    18     9    10   ar
    19    10    11    1
    20     5    14    1
    21    14    15   ar
    22    15    16   ar
    23    16    17   ar
    24    17    18   ar
    25    18    19   ar
    26    19    20    1
    27    22    23    1
    28    31    32    1
    29    32    33    1
    30    33    34    1
    31    33    35    1
    32    33    28    1
    33    10     1   ar
    34    19    14   ar
    35     8     3   ar
    36    24    27    1
    37    11    12    1
    38    11    13    1
@<TRIPOS>MOLECULE
*****
 35 38 0 0 0
SMALL
GASTEIGER

@<TRIPOS>ATOM
      1 C          24.4009   27.8330    0.3671 C.ar    1  UNL1        0.0095
      2 C          23.3407   26.8247    0.0364 C.ar    1  UNL1       -0.0000
      3 C          22.3972   26.3514    1.1022 C.ar    1  UNL1        0.0175
      4 C          21.3371   25.3432    0.7716 C.ar    1  UNL1        0.0015
      5 C          20.3937   24.8699    1.8374 C.ar    1  UNL1       -0.0002
      6 C          20.5104   25.4050    3.2338 C.ar    1  UNL1        0.0015
      7 C          21.5706   26.4133    3.5645 C.ar    1  UNL1        0.0191
      8 C          22.5140   26.8865    2.4987 C.ar    1  UNL1        0.0826
      9 N          23.5742   27.8948    2.8293 N.ar    1  UNL1       -0.2315
     10 C          24.5176   28.3681    1.7635 C.ar    1  UNL1        0.1213
     11 N          25.5778   29.3764    2.0942 N.pl3   1  UNL1       -0.3429
     12 H          25.6545   29.7276    3.0107 H       1  UNL1        0.1437
     13 H          26.1970   29.6870    1.3946 H       1  UNL1        0.1437
     14 C          19.3334   23.8616    1.5068 C.ar    1  UNL1       -0.0040
     15 C          17.8932   24.2776    1.4539 C.ar    1  UNL1       -0.0003
     16 C          16.8330   23.2693    1.1233 C.ar    1  UNL1       -0.0000
     17 C          17.2130   21.8450    0.8455 C.ar    1  UNL1       -0.0003
     18 C          18.6532   21.4290    0.8984 C.ar    1  UNL1       -0.0043
     19 C          19.7134   22.4374    1.2291 C.ar    1  UNL1       -0.0218
     20 C          21.1536   22.0214    1.2820 C.3     1  UNL1        0.0310
     21 C          25.3444   28.3063   -0.6988 C.3     1  UNL1        0.0382
     22 C          24.9261   29.3964   -1.6404 C.3     1  UNL1        0.0809
     23 C          25.2913   29.3139   -3.0929 C.3     1  UNL1        0.0099
     24 N          22.8645   30.9689   -1.8050 N.am    1  UNL1       -0.3058
     25 C          24.1427   30.5692   -1.1295 C.2     1  UNL1        0.2223
     26 O          24.6375   31.3422    0.0569 O.2     1  UNL1       -0.2751
     27 H          22.5397   30.4615   -2.5837 H       1  UNL1        0.1494
     28 O          20.5142   34.4870   -0.2724 O.3     1  UNL1       -0.3584
     29 C          21.7190   34.7096   -1.1379 C.3     1  UNL1        0.1436
     30 C          22.5024   33.5369   -1.6488 C.3     1  UNL1        0.0517
     31 C          22.0811   32.1416   -1.2942 C.3     1  UNL1        0.0764
     32 C          20.8763   31.9190   -0.4287 C.3     1  UNL1        0.0468
     33 C          20.0929   33.0918    0.0822 C.3     1  UNL1        0.0945
     34 C          19.3043   31.9683    0.6872 C.3     1  UNL1        0.0297
     35 C          19.0356   33.8742    0.8031 C.3     1  UNL1        0.0297
@<TRIPOS>BOND
     1    28    29    1
     2    29    30    1
     3    30    31    1
     4    31    24    1
     5    24    25   am
     6    25    26    2
     7    25    22    1
     8    22    21    1
     9    21     1    1
    10     1     2   ar
    11     2     3   ar
    12     3     4   ar
    13     4     5   ar
    14     5     6   ar
    15     6     7   ar
    16     7     8   ar
    17     8     9   ar
    18     9    10   ar
    19    10    11    1
    20     5    14    1
    21    14    15   ar
    22    15    16   ar
    23    16    17   ar
    24    17    18   ar
    25    18    19   ar
    26    19    20    1
    27    22    23    1
    28    31    32    1
    29    32    33    1
    30    33    34    1
    31    33    35    1
    32    33    28    1
    33    10     1   ar
    34    19    14   ar
    35     8     3   ar
    36    24    27    1
    37    11    12    1
    38    11    13    1
@<TRIPOS>MOLECULE
*****
 35 38 0 0 0
SMALL
GASTEIGER

@<TRIPOS>ATOM
      1 C          25.1078   25.9734    1.9742 C.ar    1  UNL1        0.0095
      2 C          24.0791   24.9292    1.6558 C.ar    1  UNL1       -0.0000
      3 C          22.6208   25.2366    1.8258 C.ar    1  UNL1        0.0175
      4 C          21.5921   24.1923    1.5075 C.ar    1  UNL1        0.0015
      5 C          20.1339   24.4997    1.6774 C.ar    1  UNL1       -0.0002
      6 C          19.7043   25.8514    2.1657 C.ar    1  UNL1        0.0015
      7 C          20.7329   26.8957    2.4840 C.ar    1  UNL1        0.0191
      8 C          22.1911   26.5883    2.3140 C.ar    1  UNL1        0.0826
      9 N          23.2199   27.6325    2.6324 N.ar    1  UNL1       -0.2315
     10 C          24.6781   27.3251    2.4624 C.ar    1  UNL1        0.1213
     11 N          25.7069   28.3694    2.7807 N.pl3   1  UNL1       -0.3429
     12 H          25.4249   29.2566    3.1012 H       1  UNL1        0.1437
     13 H          26.6640   28.1676    2.6692 H       1  UNL1        0.1437
     14 C          19.1051   23.4555    1.3591 C.ar    1  UNL1       -0.0040
     15 C          18.6745   22.4806    2.4147 C.ar    1  UNL1       -0.0003
     16 C          17.6459   21.4363    2.0964 C.ar    1  UNL1       -0.0000
     17 C          17.0477   21.3669    0.7225 C.ar    1  UNL1       -0.0003
     18 C          17.4783   22.3418   -0.3330 C.ar    1  UNL1       -0.0043
     19 C          18.5071   23.3861   -0.0147 C.ar    1  UNL1       -0.0218
     20 C          18.9377   24.3609   -1.0703 C.3     1  UNL1        0.0310
     21 C          26.5661   25.6660    1.8042 C.3     1  UNL1        0.0382
     22 C          27.2310   25.8931    0.4789 C.3     1  UNL1        0.0809
     23 C          28.4494   25.1018    0.1057 C.3     1  UNL1        0.0099
     24 N          27.1886   28.3214   -0.4439 N.am    1  UNL1       -0.3058
     25 C          26.6774   26.9116   -0.4732 C.2     1  UNL1        0.2223
     26 O          25.6126   26.5201   -1.4544 O.2     1  UNL1       -0.2751
     27 H          27.8875   28.5784    0.2002 H       1  UNL1        0.1494
     28 O          25.5280   31.3767   -3.3000 O.3     1  UNL1       -0.3584
     29 C          26.6850   30.5156   -3.7122 C.3     1  UNL1        0.1436
     30 C          27.2385   29.4972   -2.7602 C.3     1  UNL1        0.0517
     31 C          26.6351   29.3399   -1.3959 C.3     1  UNL1        0.0764
     32 C          25.4781   30.2009   -0.9837 C.3     1  UNL1        0.0468
     33 C          24.9245   31.2194   -1.9359 C.3     1  UNL1        0.0945
     34 C          24.0197   31.4427   -0.7605 C.3     1  UNL1        0.0297
     35 C          24.0567   32.3154   -2.4796 C.3     1  UNL1        0.0297
@<TRIPOS>BOND
     1    28    29    1
     2    29    30    1
     3    30    31    1
     4    31    24    1
     5    24    25   am
     6    25    26    2
     7    25    22    1
     8    22    21    1
     9    21     1    1
    10     1     2   ar
    11     2     3   ar
    12     3     4   ar
    13     4     5   ar
    14     5     6   ar
    15     6     7   ar
    16     7     8   ar
    17     8     9   ar
    18     9    10   ar
    19    10    11    1
    20     5    14    1
    21    14    15   ar
    22    15    16   ar
    23    16    17   ar
    24    17    18   ar
    25    18    19   ar
    26    19    20    1
    27    22    23    1
    28    31    32    1
    29    32    33    1
    30    33    34    1
    31    33    35    1
    32    33    28    1
    33    10     1   ar
    34    19    14   ar
    35     8     3   ar
    36    24    27    1
    37    11    12    1
    38    11    13    1
@<TRIPOS>MOLECULE
*****
 35 38 0 0 0
SMALL
GASTEIGER

@<TRIPOS>ATOM
      1 C          24.9777   20.4237   -1.1733 C.ar    1  UNL1        0.0095
      2 C          24.8852   21.7042   -0.3976 C.ar    1  UNL1       -0.0000
      3 C          25.7554   22.8691   -0.7665 C.ar    1  UNL1        0.0175
      4 C          25.6629   24.1496    0.0091 C.ar    1  UNL1        0.0015
      5 C          26.5330   25.3144   -0.3598 C.ar    1  UNL1       -0.0002
      6 C          27.4956   25.1986   -1.5043 C.ar    1  UNL1        0.0015
      7 C          27.5881   23.9181   -2.2800 C.ar    1  UNL1        0.0191
      8 C          26.7180   22.7533   -1.9111 C.ar    1  UNL1        0.0826
      9 N          26.8104   21.4727   -2.6867 N.ar    1  UNL1       -0.2315
     10 C          25.9403   20.3080   -2.3178 C.ar    1  UNL1        0.1213
     11 N          26.0328   19.0273   -3.0935 N.pl3   1  UNL1       -0.3429
     12 H          26.6645   18.9514   -3.8447 H       1  UNL1        0.1437
     13 H          25.4617   18.2628   -2.8514 H       1  UNL1        0.1437
     14 C          26.4405   26.5950    0.4159 C.ar    1  UNL1       -0.0040
     15 C          27.3729   26.8454    1.5639 C.ar    1  UNL1       -0.0003
     16 C          27.2805   28.1260    2.3395 C.ar    1  UNL1       -0.0000
     17 C          26.2557   29.1561    1.9672 C.ar    1  UNL1       -0.0003
     18 C          25.3232   28.9056    0.8192 C.ar    1  UNL1       -0.0043
     19 C          25.4157   27.6250    0.0436 C.ar    1  UNL1       -0.0218
     20 C          24.4833   27.3745   -1.1044 C.3     1  UNL1        0.0310
     21 C          24.1076   19.2588   -0.8044 C.3     1  UNL1        0.0382
     22 C          22.6314   19.3132   -1.0651 C.3     1  UNL1        0.0809
     23 C          22.0471   18.5669   -2.2277 C.3     1  UNL1        0.0099
     24 N          20.3854   20.5481   -0.6403 N.am    1  UNL1       -0.3058
     25 C          21.7395   20.1138   -0.1630 C.2     1  UNL1        0.2223
     26 O          22.2017   20.4801    1.2161 O.2     1  UNL1       -0.2751
     27 H          20.0820   20.3076   -1.5455 H       1  UNL1        0.1494
     28 O          17.7096   22.9498    2.0656 O.3     1  UNL1       -0.3584
     29 C          17.8109   21.4632    2.2380 C.3     1  UNL1        0.1436
     30 C          18.7028   20.6626    1.3361 C.3     1  UNL1        0.0517
     31 C          19.4934   21.3486    0.2616 C.3     1  UNL1        0.0764
     32 C          19.3921   22.8353    0.0892 C.3     1  UNL1        0.0468
     33 C          18.5002   23.6358    0.9912 C.3     1  UNL1        0.0945
     34 C          19.0470   24.7322    0.1257 C.3     1  UNL1        0.0297
     35 C          17.7982   24.8172    1.5925 C.3     1  UNL1        0.0297
@<TRIPOS>BOND
     1    28    29    1
     2    29    30    1
     3    30    31    1
     4    31    24    1
     5    24    25   am
     6    25    26    2
     7    25    22    1
     8    22    21    1
     9    21     1    1
    10     1     2   ar
    11     2     3   ar
    12     3     4   ar
    13     4     5   ar
    14     5     6   ar
    15     6     7   ar
    16     7     8   ar
    17     8     9   ar
    18     9    10   ar
    19    10    11    1
    20     5    14    1
    21    14    15   ar
    22    15    16   ar
    23    16    17   ar
    24    17    18   ar
    25    18    19   ar
    26    19    20    1
    27    22    23    1
    28    31    32    1
    29    32    33    1
    30    33    34    1
    31    33    35    1
    32    33    28    1
    33    10     1   ar
    34    19    14   ar
    35     8     3   ar
    36    24    27    1
    37    11    12    1
    38    11    13    1
@<TRIPOS>MOLECULE
*****
 35 38 0 0 0
SMALL
GASTEIGER

@<TRIPOS>ATOM
      1 C          19.7759   20.6037    2.0647 C.ar    1  UNL1        0.0095
      2 C          20.5444   20.7526    0.7851 C.ar    1  UNL1       -0.0000
      3 C          21.8399   20.0198    0.5986 C.ar    1  UNL1        0.0175
      4 C          22.6083   20.1687   -0.6809 C.ar    1  UNL1        0.0015
      5 C          23.9037   19.4359   -0.8674 C.ar    1  UNL1       -0.0002
      6 C          24.4307   18.5542    0.2257 C.ar    1  UNL1        0.0015
      7 C          23.6623   18.4053    1.5053 C.ar    1  UNL1        0.0191
      8 C          22.3669   19.1381    1.6917 C.ar    1  UNL1        0.0826
      9 N          21.5983   18.9892    2.9713 N.ar    1  UNL1       -0.2315
     10 C          20.3029   19.7220    3.1578 C.ar    1  UNL1        0.1213
     11 N          19.5344   19.5732    4.4374 N.pl3   1  UNL1       -0.3429
     12 H          19.8803   18.9945    5.1548 H       1  UNL1        0.1437
     13 H          18.6842   20.0542    4.5597 H       1  UNL1        0.1437
     14 C          24.6722   19.5848   -2.1470 C.ar    1  UNL1       -0.0040
     15 C          25.7453   20.6268   -2.2605 C.ar    1  UNL1       -0.0003
     16 C          26.5137   20.7757   -3.5400 C.ar    1  UNL1       -0.0000
     17 C          26.2092   19.8825   -4.7061 C.ar    1  UNL1       -0.0003
     18 C          25.1362   18.8406   -4.5926 C.ar    1  UNL1       -0.0043
     19 C          24.3677   18.6917   -3.3130 C.ar    1  UNL1       -0.0218
     20 C          23.2947   17.6497   -3.1995 C.3     1  UNL1        0.0310
     21 C          18.4804   21.3366    2.2512 C.3     1  UNL1        0.0382
     22 C          18.1701   22.5378    1.4080 C.3     1  UNL1        0.0809
     23 C          16.8394   22.6513    0.7253 C.3     1  UNL1        0.0099
     24 N          19.8525   24.2171    2.4567 N.am    1  UNL1       -0.3058
     25 C          19.1907   23.6254    1.2476 C.2     1  UNL1        0.2223
     26 O          19.5493   24.1213   -0.1218 O.2     1  UNL1       -0.2751
     27 H          19.6170   23.8916    3.3555 H       1  UNL1        0.1494
     28 O          22.9140   27.4799    1.9757 O.3     1  UNL1       -0.3584
     29 C          21.4805   27.8302    2.2447 C.3     1  UNL1        0.1436
     30 C          20.4600   26.7426    2.4051 C.3     1  UNL1        0.0517
     31 C          20.8730   25.3046    2.2964 C.3     1  UNL1        0.0764
     32 C          22.3065   24.9543    2.0273 C.3     1  UNL1        0.0468
     33 C          23.3270   26.0420    1.8670 C.3     1  UNL1        0.0945
     34 C          24.1997   24.8363    1.6801 C.3     1  UNL1        0.0297
     35 C          24.6505   26.7108    1.6417 C.3     1  UNL1        0.0297
@<TRIPOS>BOND
     1    28    29    1
     2    29    30    1
     3    30    31    1
     4    31    24    1
     5    24    25   am
     6    25    26    2
     7    25    22    1
     8    22    21    1
     9    21     1    1
    10     1     2   ar
    11     2     3   ar
    12     3     4   ar
    13     4     5   ar
    14     5     6   ar
    15     6     7   ar
    16     7     8   ar
    17     8     9   ar
    18     9    10   ar
    19    10    11    1
    20     5    14    1
    21    14    15   ar
    22    15    16   ar
    23    16    17   ar
    24    17    18   ar
    25    18    19   ar
    26    19    20    1
    27    22    23    1
    28    31    32    1
    29    32    33    1
    30    33    34    1
    31    33    35    1
    32    33    28    1
    33    10     1   ar
    34    19    14   ar
    35     8     3   ar
    36    24    27    1
    37    11    12    1
    38    11    13    1
@<TRIPOS>MOLECULE
*****
 35 38 0 0 0
SMALL
GASTEIGER

@<TRIPOS>ATOM
      1 C          26.7467   23.8477   -0.6311 C.ar    1  UNL1        0.0095
      2 C          25.7030   22.9588   -0.0225 C.ar    1  UNL1       -0.0000
      3 C          25.1969   21.7679   -0.7814 C.ar    1  UNL1        0.0175
      4 C          24.1532   20.8790   -0.1728 C.ar    1  UNL1        0.0015
      5 C          23.6472   19.6882   -0.9317 C.ar    1  UNL1       -0.0002
      6 C          24.1848   19.3864   -2.2991 C.ar    1  UNL1        0.0015
      7 C          25.2285   20.2753   -2.9076 C.ar    1  UNL1        0.0191
      8 C          25.7346   21.4661   -2.1488 C.ar    1  UNL1        0.0826
      9 N          26.7784   22.3551   -2.7573 N.ar    1  UNL1       -0.2315
     10 C          27.2844   23.5459   -1.9985 C.ar    1  UNL1        0.1213
     11 N          28.3282   24.4349   -2.6070 N.pl3   1  UNL1       -0.3429
     12 H          28.6811   24.2368   -3.5045 H       1  UNL1        0.1437
     13 H          28.6603   25.2165   -2.1090 H       1  UNL1        0.1437
     14 C          22.6034   18.7992   -0.3231 C.ar    1  UNL1       -0.0040
     15 C          21.1513   19.0423   -0.6099 C.ar    1  UNL1       -0.0003
     16 C          20.1075   18.1534   -0.0014 C.ar    1  UNL1       -0.0000
     17 C          20.5159   17.0212    0.8939 C.ar    1  UNL1       -0.0003
     18 C          21.9680   16.7780    1.1807 C.ar    1  UNL1       -0.0043
     19 C          23.0117   17.6671    0.5721 C.ar    1  UNL1       -0.0218
     20 C          24.4639   17.4239    0.8589 C.3     1  UNL1        0.0310
     21 C          27.2528   25.0386    0.1278 C.3     1  UNL1        0.0382
     22 C          26.4782   26.3230    0.1113 C.3     1  UNL1        0.0809
     23 C          26.9751   27.4883   -0.6918 C.3     1  UNL1        0.0099
     24 N          23.9231   26.7849    0.2015 N.am    1  UNL1       -0.3058
     25 C          25.2066   26.4420    0.8980 C.2     1  UNL1        0.2223
     26 O          25.2185   26.2183    2.3812 O.2     1  UNL1       -0.2751
     27 H          23.9153   26.9318   -0.7719 H       1  UNL1        0.1494
     28 O          20.1083   27.1421    2.5615 O.3     1  UNL1       -0.3584
     29 C          21.1057   28.2623    2.5742 C.3     1  UNL1        0.1436
     30 C          22.3773   28.1433    1.7876 C.3     1  UNL1        0.0517
     31 C          22.6515   26.9039    0.9882 C.3     1  UNL1        0.0764
     32 C          21.6540   25.7837    0.9755 C.3     1  UNL1        0.0468
     33 C          20.3824   25.9028    1.7622 C.3     1  UNL1        0.0945
     34 C          20.1919   24.5405    1.1639 C.3     1  UNL1        0.0297
     35 C          19.0447   25.5487    2.3410 C.3     1  UNL1        0.0297
@<TRIPOS>BOND
     1    28    29    1
     2    29    30    1
     3    30    31    1
     4    31    24    1
     5    24    25   am
     6    25    26    2
     7    25    22    1
     8    22    21    1
     9    21     1    1
    10     1     2   ar
    11     2     3   ar
    12     3     4   ar
    13     4     5   ar
    14     5     6   ar
    15     6     7   ar
    16     7     8   ar
    17     8     9   ar
    18     9    10   ar
    19    10    11    1
    20     5    14    1
    21    14    15   ar
    22    15    16   ar
    23    16    17   ar
    24    17    18   ar
    25    18    19   ar
    26    19    20    1
    27    22    23    1
    28    31    32    1
    29    32    33    1
    30    33    34    1
    31    33    35    1
    32    33    28    1
    33    10     1   ar
    34    19    14   ar
    35     8     3   ar
    36    24    27    1
    37    11    12    1
    38    11    13    1
@<TRIPOS>MOLECULE
*****
 35 38 0 0 0
SMALL
GASTEIGER

@<TRIPOS>ATOM
      1 C          24.1146   27.6788    1.4492 C.ar    1  UNL1        0.0095
      2 C          23.6614   28.5346    0.3038 C.ar    1  UNL1       -0.0000
      3 C          24.6318   28.9228   -0.7723 C.ar    1  UNL1        0.0175
      4 C          24.1786   29.7786   -1.9178 C.ar    1  UNL1        0.0015
      5 C          25.1489   30.1667   -2.9937 C.ar    1  UNL1       -0.0002
      6 C          26.5725   29.6991   -2.9242 C.ar    1  UNL1        0.0015
      7 C          27.0257   28.8433   -1.7787 C.ar    1  UNL1        0.0191
      8 C          26.0553   28.4551   -0.7028 C.ar    1  UNL1        0.0826
      9 N          26.5085   27.5993    0.4428 N.ar    1  UNL1       -0.2315
     10 C          25.5382   27.2111    1.5187 C.ar    1  UNL1        0.1213
     11 N          25.9913   26.3553    2.6643 N.pl3   1  UNL1       -0.3429
     12 H          26.9257   26.0483    2.7099 H       1  UNL1        0.1437
     13 H          25.3545   26.1005    3.3705 H       1  UNL1        0.1437
     14 C          24.6957   31.0226   -4.1393 C.ar    1  UNL1       -0.0040
     15 C          24.2078   30.3837   -5.4056 C.ar    1  UNL1       -0.0003
     16 C          23.7546   31.2395   -6.5511 C.ar    1  UNL1       -0.0000
     17 C          23.7894   32.7342   -6.4303 C.ar    1  UNL1       -0.0003
     18 C          24.2774   33.3731   -5.1640 C.ar    1  UNL1       -0.0043
     19 C          24.7305   32.5173   -4.0184 C.ar    1  UNL1       -0.0218
     20 C          25.2185   33.1562   -2.7521 C.3     1  UNL1        0.0310
     21 C          23.1443   27.2906    2.5253 C.3     1  UNL1        0.0382
     22 C          21.6741   27.2507    2.2306 C.3     1  UNL1        0.0809
     23 C          20.8391   28.4835    2.4117 C.3     1  UNL1        0.0099
     24 N          19.5495   25.8966    1.5960 N.am    1  UNL1       -0.3058
     25 C          21.0388   25.9778    1.7546 C.2     1  UNL1        0.2223
     26 O          21.8930   24.7863    1.4373 O.2     1  UNL1       -0.2751
     27 H          18.9889   26.6786    1.8043 H       1  UNL1        0.1494
     28 O          17.6437   22.0782    0.1684 O.3     1  UNL1       -0.3584
     29 C          17.7065   22.3821    1.6359 C.3     1  UNL1        0.1436
     30 C          18.3417   23.6548    2.1118 C.3     1  UNL1        0.0517
     31 C          18.9142   24.6238    1.1201 C.3     1  UNL1        0.0764
     32 C          18.8514   24.3200   -0.3474 C.3     1  UNL1        0.0468
     33 C          18.2161   23.0471   -0.8233 C.3     1  UNL1        0.0945
     34 C          18.6163   23.6463   -2.1390 C.3     1  UNL1        0.0297
     35 C          17.7199   21.9825   -1.7561 C.3     1  UNL1        0.0297
@<TRIPOS>BOND
     1    28    29    1
     2    29    30    1
     3    30    31    1
     4    31    24    1
     5    24    25   am
     6    25    26    2
     7    25    22    1
     8    22    21    1
     9    21     1    1
    10     1     2   ar
    11     2     3   ar
    12     3     4   ar
    13     4     5   ar
    14     5     6   ar
    15     6     7   ar
    16     7     8   ar
    17     8     9   ar
    18     9    10   ar
    19    10    11    1
    20     5    14    1
    21    14    15   ar
    22    15    16   ar
    23    16    17   ar
    24    17    18   ar
    25    18    19   ar
    26    19    20    1
    27    22    23    1
    28    31    32    1
    29    32    33    1
    30    33    34    1
    31    33    35    1
    32    33    28    1
    33    10     1   ar
    34    19    14   ar
    35     8     3   ar
    36    24    27    1
    37    11    12    1
    38    11    13    1
